@<TRIPOS>MOLECULE
C6H14
   20    19     1     0     0
SMALL
bcc


@<TRIPOS>ATOM
1 C1 0.0000 0.0000 0.0000 c3 1 MOL -0.0932000000
2 C2 1.2570 0.8890 0.0000 c3 1 MOL -0.0795000000
3 C3 2.5150 0.0000 0.0000 c3 1 MOL -0.0795000000
4 C4 3.7720 0.8890 0.0000 c3 1 MOL -0.0795000000
5 C5 5.0300 0.0000 0.0000 c3 1 MOL -0.0795000000
6 C6 6.2870 0.8890 0.0000 c3 1 MOL -0.0932000000
7 H1 0.2970 -1.0490 0.0000 hc 1 MOL 0.0326000000
8 H2 -0.5930 0.2100 -0.8900 hc 1 MOL 0.0326000000
9 H3 -0.5930 0.2100 0.8900 hc 1 MOL 0.0326000000
10 H4 1.2570 1.5180 0.8900 hc 1 MOL 0.0376000000
11 H5 1.2570 1.5180 -0.8900 hc 1 MOL 0.0376000000
12 H6 2.5150 -0.6290 -0.8900 hc 1 MOL 0.0396000000
13 H7 2.5150 -0.6290 0.8900 hc 1 MOL 0.0396000000
14 H8 3.7720 1.5180 0.8900 hc 1 MOL 0.0396000000
15 H9 3.7720 1.5180 -0.8900 hc 1 MOL 0.0396000000
16 H10 5.0300 -0.6290 -0.8900 hc 1 MOL 0.0376000000
17 H11 5.0300 -0.6290 0.8900 hc 1 MOL 0.0376000000
18 H12 5.9900 1.9380 0.0000 hc 1 MOL 0.0326000000
19 H13 6.8800 0.6790 -0.8900 hc 1 MOL 0.0326000000
20 H14 6.8800 0.6790 0.8900 hc 1 MOL 0.0326000000
@<TRIPOS>BOND
     1     1     2 1   
     2     2     3 1   
     3     3     4 1   
     4     4     5 1   
     5     5     6 1   
     6     1     7 1   
     7     1     8 1   
     8     1     9 1   
     9     2    10 1   
    10     2    11 1   
    11     3    12 1   
    12     3    13 1   
    13     4    14 1   
    14     4    15 1   
    15     5    16 1   
    16     5    17 1   
    17     6    18 1   
    18     6    19 1   
    19     6    20 1   
@<TRIPOS>SUBSTRUCTURE
     1 MOL         1 TEMP              0 ****  ****    0 ROOT
