@<TRIPOS>MOLECULE
C6H14
20 19 1 0 0
SMALL
NO_CHARGES
@<TRIPOS>ATOM
      1 C1          0.0000000    0.0000000    0.0000000 C.3    1 MOL 0.000000
      2 C2          1.2574047    0.8891194    0.0000000 C.3    1 MOL 0.000000
      3 C3          2.5148095    0.0000000    0.0000000 C.3    1 MOL 0.000000
      4 C4          3.7722142    0.8891194    0.0000000 C.3    1 MOL 0.000000
      5 C5          5.0296189    0.0000000    0.0000000 C.3    1 MOL 0.000000
      6 C6          6.2870237    0.8891194    0.0000000 C.3    1 MOL 0.000000
      7 H1          0.2966604   -1.0488530    0.0000000 H      1 MOL 0.000000
      8 H2         -0.5933208    0.2097706   -0.8899813 H      1 MOL 0.000000
      9 H3         -0.5933208    0.2097706    0.8899813 H      1 MOL 0.000000
     10 H4          1.2574047    1.5184312    0.8899813 H      1 MOL 0.000000
     11 H5          1.2574047    1.5184312   -0.8899813 H      1 MOL 0.000000
     12 H6          2.5148095   -0.6293118   -0.8899813 H      1 MOL 0.000000
     13 H7          2.5148095   -0.6293118    0.8899813 H      1 MOL 0.000000
     14 H8          3.7722142    1.5184312    0.8899813 H      1 MOL 0.000000
     15 H9          3.7722142    1.5184312   -0.8899813 H      1 MOL 0.000000
     16 H10         5.0296189   -0.6293118   -0.8899813 H      1 MOL 0.000000
     17 H11         5.0296189   -0.6293118    0.8899813 H      1 MOL 0.000000
     18 H12         5.9903632    1.9379724    0.0000000 H      1 MOL 0.000000
     19 H13         6.8803445    0.6793488   -0.8899813 H      1 MOL 0.000000
     20 H14         6.8803445    0.6793488    0.8899813 H      1 MOL 0.000000
@<TRIPOS>BOND
      1       1       2 1
      2       2       3 1
      3       3       4 1
      4       4       5 1
      5       5       6 1
      6       1       7 1
      7       1       8 1
      8       1       9 1
      9       2      10 1
     10       2      11 1
     11       3      12 1
     12       3      13 1
     13       4      14 1
     14       4      15 1
     15       5      16 1
     16       5      17 1
     17       6      18 1
     18       6      19 1
     19       6      20 1
@<TRIPOS>SUBSTRUCTURE
      1 MOL             1 RESIDUE    0 **** ROOT      0
