@<TRIPOS>MOLECULE
CH4
    5     4     1     0     0
SMALL
bcc


@<TRIPOS>ATOM
      1 C1           0.0000     0.0000     0.0000 c3         1 MOL      -0.108800
      2 H1           0.6290     0.6290     0.6290 hc         1 MOL       0.026700
      3 H2           0.6290    -0.6290    -0.6290 hc         1 MOL       0.026700
      4 H3          -0.6290     0.6290    -0.6290 hc         1 MOL       0.026700
      5 H4          -0.6290    -0.6290     0.6290 hc         1 MOL       0.026700
@<TRIPOS>BOND
     1     1     2 1   
     2     1     3 1   
     3     1     4 1   
     4     1     5 1   
@<TRIPOS>SUBSTRUCTURE
     1 MOL         1 TEMP              0 ****  ****    0 ROOT
