@<TRIPOS>MOLECULE
CH4
5 4 1 0 0
SMALL
NO_CHARGES
@<TRIPOS>ATOM
      1 C1          0.0000000    0.0000000    0.0000000 C.3    1 MOL 0.000000
      2 H1          0.6293118    0.6293118    0.6293118 H      1 MOL 0.000000
      3 H2          0.6293118   -0.6293118   -0.6293118 H      1 MOL 0.000000
      4 H3         -0.6293118    0.6293118   -0.6293118 H      1 MOL 0.000000
      5 H4         -0.6293118   -0.6293118    0.6293118 H      1 MOL 0.000000
@<TRIPOS>BOND
      1       1       2 1
      2       1       3 1
      3       1       4 1
      4       1       5 1
@<TRIPOS>SUBSTRUCTURE
      1 MOL             1 RESIDUE    0 **** ROOT      0
