@<TRIPOS>MOLECULE
C2H6
    8     7     1     0     0
SMALL
bcc


@<TRIPOS>ATOM
      1 C1           0.0000     0.0000     0.0000 c3         1 MOL      -0.094100
      2 C2           1.2570     0.8890     0.0000 c3         1 MOL      -0.094100
      3 H1           0.2970    -1.0490     0.0000 hc         1 MOL       0.031700
      4 H2          -0.5930     0.2100    -0.8900 hc         1 MOL       0.031700
      5 H3          -0.5930     0.2100     0.8900 hc         1 MOL       0.031700
      6 H4           0.9610     1.9380     0.0000 hc         1 MOL       0.031700
      7 H5           1.8510     0.6790    -0.8900 hc         1 MOL       0.031700
      8 H6           1.8510     0.6790     0.8900 hc         1 MOL       0.031700
@<TRIPOS>BOND
     1     1     2 1   
     2     1     3 1   
     3     1     4 1   
     4     1     5 1   
     5     2     6 1   
     6     2     7 1   
     7     2     8 1   
@<TRIPOS>SUBSTRUCTURE
     1 MOL         1 TEMP              0 ****  ****    0 ROOT
