@<TRIPOS>MOLECULE
C2H6
8 7 1 0 0
SMALL
NO_CHARGES
@<TRIPOS>ATOM
      1 C1          0.0000000    0.0000000    0.0000000 C.3    1 MOL 0.000000
      2 C2          1.2574047    0.8891194    0.0000000 C.3    1 MOL 0.000000
      3 H1          0.2966604   -1.0488530    0.0000000 H      1 MOL 0.000000
      4 H2         -0.5933208    0.2097706   -0.8899813 H      1 MOL 0.000000
      5 H3         -0.5933208    0.2097706    0.8899813 H      1 MOL 0.000000
      6 H4          0.9607443    1.9379724    0.0000000 H      1 MOL 0.000000
      7 H5          1.8507256    0.6793488   -0.8899813 H      1 MOL 0.000000
      8 H6          1.8507256    0.6793488    0.8899813 H      1 MOL 0.000000
@<TRIPOS>BOND
      1       1       2 1
      2       1       3 1
      3       1       4 1
      4       1       5 1
      5       2       6 1
      6       2       7 1
      7       2       8 1
@<TRIPOS>SUBSTRUCTURE
      1 MOL             1 RESIDUE    0 **** ROOT      0
