@<TRIPOS>MOLECULE
C3H8
   11    10     1     0     0
SMALL
bcc


@<TRIPOS>ATOM
1 C1 0.0000 0.0000 0.0000 c3 1 MOL -0.0931000000
2 C2 1.2570 0.8890 0.0000 c3 1 MOL -0.0814000000
3 C3 2.5150 0.0000 0.0000 c3 1 MOL -0.0931000000
4 H1 0.2970 -1.0490 0.0000 hc 1 MOL 0.0323666667
5 H2 -0.5930 0.2100 -0.8900 hc 1 MOL 0.0323666667
6 H3 -0.5930 0.2100 0.8900 hc 1 MOL 0.0323666667
7 H4 1.2570 1.5180 0.8900 hc 1 MOL 0.0367000000
8 H5 1.2570 1.5180 -0.8900 hc 1 MOL 0.0367000000
9 H6 3.4050 0.6290 0.0000 hc 1 MOL 0.0323666667
10 H7 2.5150 -0.6290 -0.8900 hc 1 MOL 0.0323666667
11 H8 2.5150 -0.6290 0.8900 hc 1 MOL 0.0323666667
@<TRIPOS>BOND
     1     1     2 1   
     2     2     3 1   
     3     1     4 1   
     4     1     5 1   
     5     1     6 1   
     6     2     7 1   
     7     2     8 1   
     8     3     9 1   
     9     3    10 1   
    10     3    11 1   
@<TRIPOS>SUBSTRUCTURE
     1 MOL         1 TEMP              0 ****  ****    0 ROOT
