@<TRIPOS>MOLECULE
C3H8
11 10 1 0 0
SMALL
NO_CHARGES
@<TRIPOS>ATOM
      1 C1          0.0000000    0.0000000    0.0000000 C.3    1 MOL 0.000000
      2 C2          1.2574047    0.8891194    0.0000000 C.3    1 MOL 0.000000
      3 C3          2.5148095    0.0000000    0.0000000 C.3    1 MOL 0.000000
      4 H1          0.2966604   -1.0488530    0.0000000 H      1 MOL 0.000000
      5 H2         -0.5933208    0.2097706   -0.8899813 H      1 MOL 0.000000
      6 H3         -0.5933208    0.2097706    0.8899813 H      1 MOL 0.000000
      7 H4          1.2574047    1.5184312    0.8899813 H      1 MOL 0.000000
      8 H5          1.2574047    1.5184312   -0.8899813 H      1 MOL 0.000000
      9 H6          3.4047907    0.6293118    0.0000000 H      1 MOL 0.000000
     10 H7          2.5148095   -0.6293118   -0.8899813 H      1 MOL 0.000000
     11 H8          2.5148095   -0.6293118    0.8899813 H      1 MOL 0.000000
@<TRIPOS>BOND
      1       1       2 1
      2       2       3 1
      3       1       4 1
      4       1       5 1
      5       1       6 1
      6       2       7 1
      7       2       8 1
      8       3       9 1
      9       3      10 1
     10       3      11 1
@<TRIPOS>SUBSTRUCTURE
      1 MOL             1 RESIDUE    0 **** ROOT      0
